LTspice 24.1.5 for Windows
Circuit: C:\Users\sofia\OneDrive - FCT NOVA\MIEEC\Mestrado\ERf\ERF-Lab2\Ltspice\ue.net
Start Time: Wed Apr 23 13:22:53 2025
solver = Normal
Maximum thread count: 16
tnom = 27
temp = 27
method = trap
WARNING: Node x1:n006 is floating.

Direct Newton iteration for .op point succeeded.
Total elapsed time: 0.431 seconds.

Files loaded:
C:\Users\sofia\OneDrive - FCT NOVA\MIEEC\Mestrado\ERf\ERF-Lab2\Ltspice\ue.net
C:\Users\sofia\AppData\Local\LTspice\lib\cmp\standard.bjt

